234

Au     12.857563554811328     11.212282211426245     11.095794702030963
Au      9.001716463234592      7.146021372122330     11.030965178753515
Au      8.811577054432572      9.160521377738778     12.969805795403225
Au     10.908080815772239      7.179421851953759     13.111066659486013
Au     10.912333472651506      9.162972743475484     11.060604767493881
Au     10.822159512664369      5.245894252931909     15.099855520554748
Au      6.772615980196686      9.116782339881931     14.857756378320403
Au      6.738033427421285      9.080471745254554     10.908957790574846
Au      8.655426137392695      7.042180360914209     15.154212658019457
Au     10.700073895987600      7.302251414629599     17.084606563694081
Au     10.756245632968241      9.240064172424209     15.077760043900826
Au     12.921443589790851      5.080933420403677     13.205060803610928
Au     14.940857720624960      5.079962572700346     11.268320720434527
Au     16.824209439668575      5.308397845837444     13.360303567850874
Au     18.769079869942303      5.404937693189935     11.374792945045611
Au      8.711328058892732      9.192625718470545     16.965373800426196
Au      6.900964390254253      7.139802190026652     12.955774493808502
Au     11.028331661600291      5.009548542226367     11.141161350358507
Au      8.977704355816270      5.168601561311963     13.081492250244146
Au     12.878237136379367     13.173996999294372      9.036747225366261
Au     14.933008185774412     11.227524200682026      9.163489702497378
Au     14.941347612221996     13.164268640508952      7.090508283881226
Au     16.980966513669795     11.239605786544729      7.276280258844436
Au     16.885965104335604     13.274398437800309      9.216855490393581
Au     19.091365685969848     11.324877747763660      9.362602470472185
Au     18.937009462084806     13.308071777780121      7.350893257004597
Au     12.906369197043166     15.096697666197958      7.012573131645891
Au     12.773325690201590     17.342966490274929      8.971363619557108
Au     14.797417089107903     15.247657598370218      9.083442694731710
Au     14.850114804468717     17.155274759825055      7.051991310765991
Au     17.021739449794826     15.359870214839512      7.027908984735670
Au     16.698672032552345     17.269066129733396      9.072136746500229
Au     18.785343710361488     15.298690575419988      9.229512560700124
Au      7.170215265866126      5.203227794767526     10.973667335701064
Au     12.947093057409862      7.107970198900811     11.177436340236378
Au     13.000351306644678     11.142344500538607      6.962463879064503
Au     12.834483765694502      9.246770948916224     13.148108871110860
Au     14.884545835467234      9.251772813369165     11.201218662733226
Au      6.894563766872371     16.961080387437715     10.753639032589072
Au      8.813976450897091     15.101919522144671     10.875281367353006
Au      8.704098281889012     17.156315491956239     12.844655158954650
Au     10.714668635072906     15.229337133472690     12.939062190138767
Au     10.746507360314485     17.350665038281715     10.898271217359007
Au      6.778941830995779     11.176686921093436     16.726603780781339
Au      6.716470741542075     15.079617395240929     12.799785455832277
Au      6.667979092772716     13.162470335143670     14.766133919323762
Au      8.598734289533724     13.260012165785954     16.852660776603539
Au     10.610843226267324     11.296568953647169     17.159978043804941
Au     10.675320195510066     13.231224876492266     15.002486247991243
Au      8.468022682873556     15.338747002095122     14.979242240363384
Au     10.526939505692965     15.237358539347333     16.926185009823268
Au     10.546302025029915     17.230362252486319     14.867194095955465
Au      8.730958848809536     11.188208711663444     14.902928376284109
Au     10.822182937706405     13.169970476679321     10.989021077238869
Au     10.785376868387800     11.201868410351700     13.025754514630218
Au      8.721527085077808     13.149002867076634     12.892030529689668
Au     16.879767216284591      7.302883798213220     11.297007322191678
Au     16.835196070033916      9.341701376050748     13.240765744869963
Au     18.830345274016071      7.343883601524988     13.340463869916421
Au     12.738548832244989      5.396539963489811     17.057695856359761
Au     14.858123202127038      5.356474895150726     15.271783806529809
Au     12.822410954876618      7.315198167735108     15.189952953075389
Au     12.613855506739911      9.385989331327181     17.269620392590298
Au     14.743083051304966      7.425030979058561     17.311647378408747
Au     14.763836129705799      9.305647956567709     15.248690467478049
Au     16.916515109706417      7.239593499281935     15.420158937435565
Au     16.735129254971795      9.414631239619041     17.181210873134695
Au     18.781190712729590      9.331552900125947     15.185546113726204
Au      6.623769786011911     11.097360876306746     12.834000483296006
Au      6.653177659353932     13.047702511325507     10.835034821538889
Au      8.764044896664293     11.112972542408977     10.944137314805170
Au     14.848115740379884      7.258323562355452     13.235987943522122
Au     15.003265030825688     15.078716445030485      5.076648845525516
Au     19.050888499264776      9.361226297286699     11.355674179347234
Au     18.964574246774415     11.254226212554316      5.484584304632199
Au     14.697773416601251     13.319473338519016     15.177065417792273
Au     16.762661826479491     11.396979727001678     15.205760936920685
Au     16.561567422960792     13.406536304104815     17.202225179687620
Au     18.734803888848482     11.437357513818318     16.965019163941310
Au     18.654516624483403     13.515531806657471     15.130281939352450
Au     12.617921980286853     15.251025831022460     15.002316565394214
Au     14.627212935956100     11.327665549832044     17.288607294876449
Au     12.481956321156249     17.213539351912910     16.836501589128140
Au     14.568061260184264     17.324211619695738     15.020165808747159
Au     16.692699750512308     15.510809909199027     15.250809246094507
Au      9.147936393945553      9.018062177879999      4.983578482081376
Au     11.131051451420284      7.139690065064676      5.049323542946585
Au     11.136452559349340      5.151174603660847      7.132951330276721
Au      7.051906271722086      7.077763558767159      8.937583513662229
Au     14.514482896751630     15.327437428066602     17.091053916152312
Au     12.585788015261363     13.271379099305092     17.222573654188860
Au     12.718326072820391     11.289719159197553     15.178771007635520
Au     18.520567801774710     17.281492115108708     11.162225639227046
Au     12.927163433680999     16.926414123177874      5.062047827475113
Au     12.757103678785288     13.247604958074593     13.070082809304038
Au     14.803701835623658     11.285169926246073     13.193276792180656
Au     14.795112831241633     13.264397179125289     11.124641813743143
Au     16.955361252205037     11.313404206432654     11.244166867252204
Au     16.741715899679530     13.352115297455645     13.156163108957022
Au     18.955900888921409     11.396608255230312     13.269937686566450
Au     18.965225292444096     13.354707847168944     11.276920671408462
Au     12.754012863457413     15.327540743316536     11.010394033271629
Au     12.629070481133498     17.430704898352793     12.958110321011336
Au     14.653842568614726     15.330091885093228     13.073568261511015
Au     14.651709610218337     17.452952549640127     11.028701880608207
Au     16.696018214786179     15.315065268339904     11.144470373993721
Au     16.542255114301287     17.373671258169679     13.117917794007116
Au     18.639449230582823     15.425569574536764     13.200743644066646
Au      7.054040586292754      8.993762973134761      6.975004908408420
Au      8.990892666207451      6.950443089926486      6.890590318077965
Au      9.143400865125942      5.114598415861614      9.026487981309792
Au     11.052513650609933      7.121047785340360      9.099570275812138
Au     11.090229738681717     11.058998377504423      4.821760245278309
Au     10.953870402415516     14.996491454376676      4.925803858027649
Au      8.961426402017235      9.094594621446497      8.995139697656450
Au      6.973611098141619     13.010858962570142      6.905006933276645
Au      9.021632981524835     11.050730425433771      6.979741292530964
Au      8.874654307587987     13.073712562894004      8.927000129166919
Au     10.928593303691860     11.130633774823451      9.015255532866281
Au      9.061085116699095     13.017327529311707      4.915399398074713
Au     10.967633376806646     13.073841475441087      6.940396838899213
Au      8.795751170177251     15.152245934022414      6.736055274452044
Au      8.864875507377709     17.071382228667890      8.805186597322169
Au     10.860797318950235     15.150572779083314      8.946691070143464
Au     10.855810245806900     17.060437667997551      6.915495412387271
Au     13.027068829842959     13.070115492015310      4.853501315143902
Au     15.061531963921382     11.160275939564739      4.971918879139001
Au     16.998236959308759     13.202063210135153      5.220436375880369
Au      6.877142309849621     15.000612525725373      8.795048790427572
Au      7.196292375957758     10.973485145233647      5.024071171613358
Au      6.763637443704575     11.030553978694158      8.912318913142800
Au     18.962049514094549      7.335335568961706      9.376388353173580
Au     11.055547683174044      9.117924571788613      7.011503497845862
Au     13.185892919879519      5.314669400789443      5.248268920958147
Au     13.119968210109393      9.151259620378550      4.917628458915941
Au     19.024184869186843      9.263714865027159      7.421639956306147
Au     15.184192248719594      7.243394874956897      5.214218220854423
Au     17.091015130467717      9.213743871251273      5.284433925888521
Au     15.106342482729719      5.238550149332553      7.265756551263547
Au     13.055165984767276      5.025075160138059      9.208879951630168
Au     13.083899352128423      7.200338376429722      7.147322878692043
Au     12.972919806823949      9.187383540906417      9.108049011364807
Au     14.977136742176839      7.209998127969613      9.227160031688255
Au     15.035797939649806      9.221472626765195      7.159220388236347
Au     17.202215247747805      7.129446525831947      7.180976989075894
Au     16.979656967889060      9.280745233885524      9.296510937331215
Au     16.957353726950512      5.273799965374430      9.287314441390825
C      14.431077816062579      8.608861909528184     21.691541730494137
C      10.100329446584832     10.161890532590688     21.182825743255226
C       7.632917829999071     15.256304603600793     24.041431579364687
C       7.751301500954607      9.888717181964841     20.348013290821488
C      14.569294533660305     10.975861605480864     22.289362671061696
C       7.228230765028333     15.019199347535238     25.494779458378151
C       6.780667892825674      9.464742660801294     21.463873799415335
C      14.615721359035293     15.195797622036025     20.552267317650479
C       9.800933865315866     11.576603873643533     21.597884829635856
C      14.373597830675104      8.516997020829853     20.165061646004833
C       8.287321203342469     15.854275924694541     20.701214749233106
C      11.055098988242182     14.451239994755143     21.476570610046732
C      19.440146067763131     12.375599548781759     19.835990148014993
C       9.952668802927398     12.549355213275680     20.414917545307269
C      13.824869062802643     12.280413414483538     22.401287804908542
C       7.031372635824886     13.980989282070256     21.942831212100753
C      13.737069488472592     12.943576659294749     21.008259466496057
C      16.836322438664087     13.931336239620618     20.372876263863017
C       6.939282056728048     15.251307921586337     21.126469287863248
C      18.041580695272174     11.835811143629332     20.126320515224393
C       9.166492449724412     14.852453382059903     19.957320030743066
C      12.223420290137678     14.796329721408625     20.522810841770170
C      15.970874821852178     14.852483474620414     21.195279828594568
H       8.528765663832992     14.254294388615646     19.267553615463736
H       7.710944017606203     10.991139812567603     20.266170672109489
H      12.045247289663267     14.315389167373199     19.513891536380587
H       7.419490760068236      9.486671138730900     19.363776753983839
H       9.143882071526669     12.359482813829663     19.680869045529789
H      10.793111825745822     15.348520982615579     22.073658380287423
H      11.410273608833036     13.700687075219562     22.209066612077468
H      10.906881138462007     12.338007438960028     19.864287100726834
H       9.413152482276159      8.526683413724156     20.233106555150748
H       8.814567236273691     13.863819435000847     26.193851015401918
H       9.885081556521421     15.401067974098769     19.272533738624578
H       6.353652714879181     16.012932503519011     21.680395666006479
H       6.361959847074590     14.982851407214172     20.222534484001898
H       6.664843802984978      8.362306899044409     21.478276914383759
H       7.236924227103243      9.743816485944658     22.436961262679265
H       5.587012816023069     11.124741881658943     21.349305537683048
H       7.372897538265472     13.199282313058518     23.809096331901141
H       7.113199972549376     16.147791138995899     23.642431946758336
H       8.727053661511931     15.461991273834569     23.989413473479082
H      14.300401828094587      6.446827794124948     19.854234588807248
H       7.508681329114093     15.910587263734330     26.097801701270125
H       8.839191439382182     16.250740181381779     21.578404304872123
H       8.085343593026074     16.721819411070410     20.043295938046935
H       8.769790009773294     11.688147510122892     21.988552449332897
H      10.516937039094195     11.832858317945218     22.400355344628448
H      15.856370786115541      7.074572717387787     19.833530527675954
H      16.554184019909002     15.789470311471391     21.285817608564937
H      14.720430168876085     15.121145888595558     19.415880575451656
H      14.366584582278927     16.254193546235200     20.753691560161528
H      16.691841582890667     12.293813811295058     21.691978158298632
H      12.260727716533461     15.884566811485193     20.322330579764177
H      15.822106545160002     14.461694979995954     22.219588726910885
H       6.126955781222200     14.919030825044773     25.545135777663042
H      20.072223548902087     12.349413337184600     20.746790841023092
H      19.348666946412763     13.420663675398874     19.490528008742430
H      20.283555735870234     10.633326007127026     19.027380127826778
H       4.961221779421784      9.796848928849618     20.526929900766092
H      17.548121968315332     11.635587474777545     19.142082534967894
H      14.665082851035265     12.723813032362882     20.440079104636943
H      20.945062094825314     12.039241710931629     18.428320456199536
H       7.333922444033374     13.392590951584037     26.794852000591867
H      18.073086753622587     10.880529186067157     20.682121367321745
H      14.954041228128386      9.350868943978405     19.720533736637051
H      13.870038654794227      7.776986483063347     22.160214812095912
H      13.324960709437949      8.655179842694242     19.826867103589709
H      12.783277578329937      9.950465773000996     21.940386421790034
H      14.384657778007890     12.939626621284045     23.088314453265127
H      12.812340626781971     12.130091799430595     22.822379727384892
H      12.929417735636401     12.457557639870410     20.420834103890179
H      15.475438102613657      8.592495464103505     22.057441577120560
N      13.516740308402261     14.389289872111764     21.054226163375400
N       5.474235016232826     10.093530254068538     21.372010719777414
N       7.291529643609659     14.080024914230505     23.270369660589871
N      17.230243602954868     12.755570458356756     20.900404097666939
N      20.059474313264339     11.600601045373573     18.732900337027100
N      14.872635780430974      7.262600617328258     19.575754589795540
N       7.814069298185478     13.760395747451431     25.960734956347487
N      13.829778427281001      9.869241679647784     22.090233166445863
N       9.125634092116448      9.459437581142415     20.565676861321577
N       9.849143869309447     13.931679291384027     20.847665719157682
O       6.824941288612673     12.842815917023893     21.408326921614066
O      11.256096248021011      9.638658151354079     21.358068225868674
O      17.219811351519851     14.320036781700280     19.204870265706148
O      15.852370256770129     10.963562368404425     22.313523888550097
