101
Generated with con2xyz
O   7.70476273804498   1.32606662929177   0.00000000000000
O   5.77858650000000   2.43814499883374   1.57279685440000
O   0.00005778586498   1.32606662929177   0.00000000000000
O   9.63093897608996   2.43814499883374   1.57279685440000
O   3.85241026195502   1.32606662929177   0.00000000000000
O   1.92623402390996   2.43814499883374   1.57279685440000
O   5.77858649999996   4.66230173791763   0.00000000000000
O   3.85235247609000   5.77448019551370   1.57279685440000
O   -1.92611845218004   4.66230173791763   0.00000000000000
O   7.70470495217996   5.77448019551370   1.57279685440000
O   1.92623402391000   4.66230173791763   0.00000000000000
O   -0.00000000000004   5.77448019551370   1.57279685440000
O   3.85235247608996   7.99863693459758   0.00000000000000
O   1.92617623804502   9.11071530413949   1.57279685440000
O   -3.85235247609004   7.99863693459758   0.00000000000000
O   5.77852871413498   9.11071530413949   1.57279685440000
O   0.00000000000000   7.99863693459758   0.00000000000000
O   -1.92617623804502   9.11071530413949   1.57279685440000
O   5.78073148450174   0.22694374458584   3.15098024483387
O   5.84198992413903   2.44457352650237   6.44344132911471
O   5.92082829488295   0.10911800680805   8.03883253887890
O   7.71015103415156   1.32028213923239   4.79285903125519
O   9.62698322335083   0.23417075706402   3.13147243666159
O   9.62385106470736   2.52732794950287   6.31474555058097
O   9.63460039398860   0.36810029388340   7.96603995137154
O   -0.02010054931761   1.30634184479860   4.79258407823824
O   1.91892248973158   0.22547304839041   3.14784621617638
O   1.84196321806225   2.49945638689733   6.37399703903134
O   1.78268790228970   0.16942454762236   8.01722519425066
O   3.84799122759509   1.34052170201640   4.78242795991620
O   3.84722565418961   3.55703381156186   3.16275429666637
O   3.79672515378954   5.78661328141155   6.36213714469902
O   3.65512438639131   3.68875357843661   8.17147716416662
O   5.78771656225456   4.68116051554401   4.76309707954633
O   7.70344452662878   3.55260170369635   3.15365256265414
O   7.72444657902516   5.85295455742333   6.44336499896040
O   7.89619277113598   3.47584406021340   8.23636949523471
O   -1.94773389682946   4.71026574644944   4.76230681849410
O   -0.01139615184467   3.55209214702783   3.15673399625063
O   -0.02331313698115   5.80015097642262   6.37345955877691
O   -0.07329222119369   3.54714417908544   8.09886079525729
O   1.90473746179250   4.68577115250519   4.75210923223494
O   1.90918417232470   6.89291174445339   3.13765712699279
O   1.90083810873485   9.08952389143715   6.33058831913929
O   1.81251577403119   6.87278512987575   8.27385098242806
O   3.85037694085526   8.01372770738222   4.71568371123596
O   5.78926465731700   6.89333058849625   3.14094956700102
O   5.79805072789364   9.06827168470351   6.34402727486548
O   5.73910486124332   7.03395018939102   8.54870956800122
O   -3.84426282619523   8.01969979285217   4.77466386113630
O   -1.93166728761169   6.90221060074219   3.13860886069958
O   -1.93068363808496   9.07956979234718   6.39167099076184
O   -1.88412179399912   7.01563091174710   8.14070027986076
O   -0.01347878096713   8.01412989512028   4.77613244492383
Ce   7.71141468194708   1.28374722891042   7.15645243163457
Ce   5.76015596933878   2.44601294926996   4.00409038523971
Ce   -0.02354460909221   1.28378963878507   7.12987757673478
Ce   9.62029606921902   2.44733302291877   3.94607222614088
Ce   3.85567275896386   1.32173264350199   7.42301115465205
Ce   1.93721732156549   2.43396466296285   3.98133933374341
Ce   5.76234634764200   4.64816077404478   7.22269855367726
Ce   3.85599693523007   5.79152135358434   3.97406972115315
Ce   -1.94075141535801   4.69470485067212   7.08473998724156
Ce   7.68668013591285   5.79207266992199   3.95661460129212
Ce   1.90856317718583   4.67667290361936   7.08414964366782
Ce   -0.01104742948978   5.79886040085761   3.93504340347328
Ce   3.82210482632227   8.05919886297066   7.23027779471786
Ce   1.93178619163135   9.11288384805323   3.94450520548976
Ce   -3.83488131503241   8.12269390033588   7.13884993244224
Ce   5.76416011598298   9.10888151506157   3.94847837747528
Ce   0.00858819476974   8.09090880154889   7.14873216369213
Ce   -1.92627044174488   9.14893876222496   3.96534136841008
Ce   5.77858649999996   0.21398825974986   0.78639842719993
Ce   9.63093897608393   0.21398825974986   0.78639842719993
Ce   1.92623402391000   0.21398825974986   0.78639842719993
Ce   3.85241026195498   3.55022336837565   0.78639842719993
Ce   7.70476273804502   3.55022336837565   0.78639842719993
Ce   0.00005778586502   3.55022336837565   0.78639842719993
Ce   1.92617623804498   6.88655856505561   0.78639842719993
Ce   5.77852871413502   6.88655856505561   0.78639842719993
Ce   -1.92617623804342   6.88655856505561   0.78639842719993
Cu   1.23466186147241   4.23290738742808   11.93509719961414
Cu   -0.13207958495604   6.21481212131566   11.61540897739511
Cu   4.82704326765557   3.63759106502548   12.86310567829975
Cu   5.88813329895198   5.55511407595535   11.91217636666194
Cu   7.37262982295522   3.80813685058651   12.61538063941067
Cu   -3.25983682583343   6.03003990945534   12.07661986373788
Cu   -1.67577927488933   4.25159572398945   11.75705495070694
Cu   3.39197383658780   5.61551552982067   12.08694578479648
Rh   4.50823520197245   6.02862786689405   9.86326490163970
Rh   3.35903723311321   3.75553813462538   10.17577298180897
Rh   1.89401606425450   5.97991084838907   10.02125781781747
Rh   -0.08486784287649   4.41410411980226   9.85195234129108
Rh   7.08313640017406   6.45654454575860   9.89469422087279
Rh   5.87911479203254   2.67929530003337   10.81359293295689
Rh   7.89629601735862   4.11215533579203   10.11207846829312
Rh   -1.95745175709640   6.20938812166687   9.92254688759934
O   2.98933369614364   3.66364433868741   12.35134952611510
O   4.21556603187803   2.02089257399253   10.09576761335782
O   7.62688295931360   0.36360643574284   11.52590869216513
C   6.98489267926835   1.29747381045622   11.23490887948650
